!-Generator IDFEditor 1.51
!-Option SortedOrder

!-NOTE: All comments with '!-' are ignored by the IDFEditor and are generated automatically.
!-      Use '!' comments if they need to be retained when using the IDFEditor.


!-   ===========  ALL OBJECTS IN CLASS: VERSION ===========

Version,
    9.4;                     !- Version Identifier


!-   ===========  ALL OBJECTS IN CLASS: SIMULATIONCONTROL ===========

SimulationControl,
    Yes,                     !- Do Zone Sizing Calculation
    Yes,                     !- Do System Sizing Calculation
    Yes,                     !- Do Plant Sizing Calculation
    Yes,                     !- Run Simulation for Sizing Periods
    Yes,                     !- Run Simulation for Weather File Run Periods
    No,                      !- Do HVAC Sizing Simulation for Sizing Periods
    1;                       !- Maximum Number of HVAC Sizing Simulation Passes


!-   ===========  ALL OBJECTS IN CLASS: BUILDING ===========

Building,
    Test,                    !- Name
    ,                        !- North Axis {deg}
    Suburbs,                 !- Terrain
    0.04,                    !- Loads Convergence Tolerance Value {W}
    0.4,                     !- Temperature Convergence Tolerance Value {deltaC}
    FullExterior,            !- Solar Distribution
    25,                      !- Maximum Number of Warmup Days
    6;                       !- Minimum Number of Warmup Days


!-   ===========  ALL OBJECTS IN CLASS: SIZINGPERIOD:DESIGNDAY ===========

SizingPeriod:DesignDay,
    Sizing,                  !- Name
    1,                       !- Month
    1,                       !- Day of Month
    Monday,                  !- Day Type
    35,                      !- Maximum Dry-Bulb Temperature {C}
    10,                      !- Daily Dry-Bulb Temperature Range {deltaC}
    DefaultMultipliers,      !- Dry-Bulb Temperature Range Modifier Type
    ,                        !- Dry-Bulb Temperature Range Modifier Day Schedule Name
    WetBulb,                 !- Humidity Condition Type
    27,                      !- Wetbulb or DewPoint at Maximum Dry-Bulb {C}
    ,                        !- Humidity Condition Day Schedule Name
    ,                        !- Humidity Ratio at Maximum Dry-Bulb {kgWater/kgDryAir}
    ,                        !- Enthalpy at Maximum Dry-Bulb {J/kg}
    ,                        !- Daily Wet-Bulb Temperature Range {deltaC}
    ,                        !- Barometric Pressure {Pa}
    0,                       !- Wind Speed {m/s}
    0,                       !- Wind Direction {deg}
    No,                      !- Rain Indicator
    No,                      !- Snow Indicator
    No,                      !- Daylight Saving Time Indicator
    ASHRAEClearSky,          !- Solar Model Indicator
    ,                        !- Beam Solar Day Schedule Name
    ,                        !- Diffuse Solar Day Schedule Name
    ,                        !- ASHRAE Clear Sky Optical Depth for Beam Irradiance (taub) {dimensionless}
    ,                        !- ASHRAE Clear Sky Optical Depth for Diffuse Irradiance (taud) {dimensionless}
    ,                        !- Sky Clearness
    ,                        !- Maximum Number Warmup Days
    FullResetAtBeginEnvironment;  !- Begin Environment Reset Mode


!-   ===========  ALL OBJECTS IN CLASS: RUNPERIOD ===========

RunPeriod,
    Run Period,              !- Name
    1,                       !- Begin Month
    1,                       !- Begin Day of Month
    ,                        !- Begin Year
    1,                       !- End Month
    2,                       !- End Day of Month
    ,                        !- End Year
    ,                        !- Day of Week for Start Day
    Yes,                     !- Use Weather File Holidays and Special Days
    Yes,                     !- Use Weather File Daylight Saving Period
    No,                      !- Apply Weekend Holiday Rule
    Yes,                     !- Use Weather File Rain Indicators
    Yes,                     !- Use Weather File Snow Indicators
    No;                      !- Treat Weather as Actual


!-   ===========  ALL OBJECTS IN CLASS: MATERIAL ===========

Material,
    C5 - 4 IN HW CONCRETE,   !- Name
    MediumRough,             !- Roughness
    0.1014984,               !- Thickness {m}
    1.729577,                !- Conductivity {W/m-K}
    2242.585,                !- Density {kg/m3}
    836.8000,                !- Specific Heat {J/kg-K}
    0.9000000,               !- Thermal Absorptance
    0.6500000,               !- Solar Absorptance
    0.6500000;               !- Visible Absorptance


!-   ===========  ALL OBJECTS IN CLASS: MATERIAL:NOMASS ===========

Material:NoMass,
    R13LAYER,                !- Name
    Rough,                   !- Roughness
    2.290965,                !- Thermal Resistance {m2-K/W}
    0.9000000,               !- Thermal Absorptance
    0.7500000,               !- Solar Absorptance
    0.7500000;               !- Visible Absorptance

Material:NoMass,
    R31LAYER,                !- Name
    Rough,                   !- Roughness
    5.456,                   !- Thermal Resistance {m2-K/W}
    0.9000000,               !- Thermal Absorptance
    0.7500000,               !- Solar Absorptance
    0.7500000;               !- Visible Absorptance


!-   ===========  ALL OBJECTS IN CLASS: CONSTRUCTION ===========

Construction,
    R13WALL,                 !- Name
    R13LAYER;                !- Outside Layer

Construction,
    FLOOR,                   !- Name
    C5 - 4 IN HW CONCRETE;   !- Outside Layer

Construction,
    ROOF31,                  !- Name
    R31LAYER;                !- Outside Layer


!-   ===========  ALL OBJECTS IN CLASS: GLOBALGEOMETRYRULES ===========

GlobalGeometryRules,
    UpperLeftCorner,         !- Starting Vertex Position
    Counterclockwise,        !- Vertex Entry Direction
    Relative,                !- Coordinate System
    Relative,                !- Daylighting Reference Point Coordinate System
    Relative;                !- Rectangular Surface Coordinate System


!-   ===========  ALL OBJECTS IN CLASS: ZONE ===========

Zone,
    Zone 1,                  !- Name
    ,                        !- Direction of Relative North {deg}
    ,                        !- X Origin {m}
    ,                        !- Y Origin {m}
    ,                        !- Z Origin {m}
    1,                       !- Type
    1,                       !- Multiplier
    autocalculate,           !- Ceiling Height {m}
    autocalculate,           !- Volume {m3}
    autocalculate,           !- Floor Area {m2}
    ,                        !- Zone Inside Convection Algorithm
    ,                        !- Zone Outside Convection Algorithm
    Yes;                     !- Part of Total Floor Area


!-   ===========  ALL OBJECTS IN CLASS: BUILDINGSURFACE:DETAILED ===========

BuildingSurface:Detailed,
    Zn001:Wall001,           !- Name
    Wall,                    !- Surface Type
    R13WALL,                 !- Construction Name
    Zone 1,                  !- Zone Name
    Outdoors,                !- Outside Boundary Condition
    ,                        !- Outside Boundary Condition Object
    SunExposed,              !- Sun Exposure
    WindExposed,             !- Wind Exposure
    0.5000000,               !- View Factor to Ground
    4,                       !- Number of Vertices
    0,                       !- Vertex 1 X-coordinate {m}
    0,                       !- Vertex 1 Y-coordinate {m}
    4.572000,                !- Vertex 1 Z-coordinate {m}
    0,                       !- Vertex 2 X-coordinate {m}
    0,                       !- Vertex 2 Y-coordinate {m}
    0,                       !- Vertex 2 Z-coordinate {m}
    15.24000,                !- Vertex 3 X-coordinate {m}
    0,                       !- Vertex 3 Y-coordinate {m}
    0,                       !- Vertex 3 Z-coordinate {m}
    15.24000,                !- Vertex 4 X-coordinate {m}
    0,                       !- Vertex 4 Y-coordinate {m}
    4.572000;                !- Vertex 4 Z-coordinate {m}

BuildingSurface:Detailed,
    Zn001:Wall002,           !- Name
    Wall,                    !- Surface Type
    R13WALL,                 !- Construction Name
    Zone 1,                  !- Zone Name
    Outdoors,                !- Outside Boundary Condition
    ,                        !- Outside Boundary Condition Object
    SunExposed,              !- Sun Exposure
    WindExposed,             !- Wind Exposure
    0.5000000,               !- View Factor to Ground
    4,                       !- Number of Vertices
    15.24000,                !- Vertex 1 X-coordinate {m}
    0,                       !- Vertex 1 Y-coordinate {m}
    4.572000,                !- Vertex 1 Z-coordinate {m}
    15.24000,                !- Vertex 2 X-coordinate {m}
    0,                       !- Vertex 2 Y-coordinate {m}
    0,                       !- Vertex 2 Z-coordinate {m}
    15.24000,                !- Vertex 3 X-coordinate {m}
    15.24000,                !- Vertex 3 Y-coordinate {m}
    0,                       !- Vertex 3 Z-coordinate {m}
    15.24000,                !- Vertex 4 X-coordinate {m}
    15.24000,                !- Vertex 4 Y-coordinate {m}
    4.572000;                !- Vertex 4 Z-coordinate {m}

BuildingSurface:Detailed,
    Zn001:Wall003,           !- Name
    Wall,                    !- Surface Type
    R13WALL,                 !- Construction Name
    Zone 1,                  !- Zone Name
    Outdoors,                !- Outside Boundary Condition
    ,                        !- Outside Boundary Condition Object
    SunExposed,              !- Sun Exposure
    WindExposed,             !- Wind Exposure
    0.5000000,               !- View Factor to Ground
    4,                       !- Number of Vertices
    15.24000,                !- Vertex 1 X-coordinate {m}
    15.24000,                !- Vertex 1 Y-coordinate {m}
    4.572000,                !- Vertex 1 Z-coordinate {m}
    15.24000,                !- Vertex 2 X-coordinate {m}
    15.24000,                !- Vertex 2 Y-coordinate {m}
    0,                       !- Vertex 2 Z-coordinate {m}
    0,                       !- Vertex 3 X-coordinate {m}
    15.24000,                !- Vertex 3 Y-coordinate {m}
    0,                       !- Vertex 3 Z-coordinate {m}
    0,                       !- Vertex 4 X-coordinate {m}
    15.24000,                !- Vertex 4 Y-coordinate {m}
    4.572000;                !- Vertex 4 Z-coordinate {m}

BuildingSurface:Detailed,
    Zn001:Wall004,           !- Name
    Wall,                    !- Surface Type
    R13WALL,                 !- Construction Name
    Zone 1,                  !- Zone Name
    Outdoors,                !- Outside Boundary Condition
    ,                        !- Outside Boundary Condition Object
    SunExposed,              !- Sun Exposure
    WindExposed,             !- Wind Exposure
    0.5000000,               !- View Factor to Ground
    4,                       !- Number of Vertices
    0,                       !- Vertex 1 X-coordinate {m}
    15.24000,                !- Vertex 1 Y-coordinate {m}
    4.572000,                !- Vertex 1 Z-coordinate {m}
    0,                       !- Vertex 2 X-coordinate {m}
    15.24000,                !- Vertex 2 Y-coordinate {m}
    0,                       !- Vertex 2 Z-coordinate {m}
    0,                       !- Vertex 3 X-coordinate {m}
    0,                       !- Vertex 3 Y-coordinate {m}
    0,                       !- Vertex 3 Z-coordinate {m}
    0,                       !- Vertex 4 X-coordinate {m}
    0,                       !- Vertex 4 Y-coordinate {m}
    4.572000;                !- Vertex 4 Z-coordinate {m}

BuildingSurface:Detailed,
    Zn001:Flr001,            !- Name
    Floor,                   !- Surface Type
    FLOOR,                   !- Construction Name
    Zone 1,                  !- Zone Name
    Surface,                 !- Outside Boundary Condition
    Zn001:Flr001,            !- Outside Boundary Condition Object
    NoSun,                   !- Sun Exposure
    NoWind,                  !- Wind Exposure
    1.000000,                !- View Factor to Ground
    4,                       !- Number of Vertices
    15.24000,                !- Vertex 1 X-coordinate {m}
    0.000000,                !- Vertex 1 Y-coordinate {m}
    0.0,                     !- Vertex 1 Z-coordinate {m}
    0.000000,                !- Vertex 2 X-coordinate {m}
    0.000000,                !- Vertex 2 Y-coordinate {m}
    0.0,                     !- Vertex 2 Z-coordinate {m}
    0.000000,                !- Vertex 3 X-coordinate {m}
    15.24000,                !- Vertex 3 Y-coordinate {m}
    0.0,                     !- Vertex 3 Z-coordinate {m}
    15.24000,                !- Vertex 4 X-coordinate {m}
    15.24000,                !- Vertex 4 Y-coordinate {m}
    0.0;                     !- Vertex 4 Z-coordinate {m}

BuildingSurface:Detailed,
    Zn001:Roof001,           !- Name
    Roof,                    !- Surface Type
    ROOF31,                  !- Construction Name
    Zone 1,                  !- Zone Name
    Outdoors,                !- Outside Boundary Condition
    ,                        !- Outside Boundary Condition Object
    SunExposed,              !- Sun Exposure
    WindExposed,             !- Wind Exposure
    0,                       !- View Factor to Ground
    4,                       !- Number of Vertices
    0.000000,                !- Vertex 1 X-coordinate {m}
    15.24000,                !- Vertex 1 Y-coordinate {m}
    4.572,                   !- Vertex 1 Z-coordinate {m}
    0.000000,                !- Vertex 2 X-coordinate {m}
    0.000000,                !- Vertex 2 Y-coordinate {m}
    4.572,                   !- Vertex 2 Z-coordinate {m}
    15.24000,                !- Vertex 3 X-coordinate {m}
    0.000000,                !- Vertex 3 Y-coordinate {m}
    4.572,                   !- Vertex 3 Z-coordinate {m}
    15.24000,                !- Vertex 4 X-coordinate {m}
    15.24000,                !- Vertex 4 Y-coordinate {m}
    4.572;                   !- Vertex 4 Z-coordinate {m}


!-   ===========  ALL OBJECTS IN CLASS: HVACTEMPLATE:ZONE:FANCOIL ===========

HVACTemplate:Zone:FanCoil,
    Zone 1,                  !- Zone Name
    ,                        !- Template Thermostat Name
    autosize,                !- Supply Air Maximum Flow Rate {m3/s}
    ,                        !- Zone Heating Sizing Factor
    ,                        !- Zone Cooling Sizing Factor
    Flow/Person,             !- Outdoor Air Method
    0.00944,                 !- Outdoor Air Flow Rate per Person {m3/s}
    ,                        !- Outdoor Air Flow Rate per Zone Floor Area {m3/s-m2}
    ,                        !- Outdoor Air Flow Rate per Zone {m3/s}
    ,                        !- System Availability Schedule Name
    0.7,                     !- Supply Fan Total Efficiency
    75,                      !- Supply Fan Delta Pressure {Pa}
    0.9,                     !- Supply Fan Motor Efficiency
    1,                       !- Supply Fan Motor in Air Stream Fraction
    ChilledWater,            !- Cooling Coil Type
    ,                        !- Cooling Coil Availability Schedule Name
    14,                      !- Cooling Coil Design Setpoint {C}
    Electric,                !- Heating Coil Type
    ,                        !- Heating Coil Availability Schedule Name
    50,                      !- Heating Coil Design Setpoint {C}
    ,                        !- Dedicated Outdoor Air System Name
    SupplyAirTemperature,    !- Zone Cooling Design Supply Air Temperature Input Method
    11.11,                   !- Zone Cooling Design Supply Air Temperature Difference {deltaC}
    SupplyAirTemperature,    !- Zone Heating Design Supply Air Temperature Input Method
    30,                      !- Zone Heating Design Supply Air Temperature Difference {deltaC}
    ,                        !- Design Specification Outdoor Air Object Name
    ,                        !- Design Specification Zone Air Distribution Object Name
    ,                        !- Capacity Control Method
    0.33,                    !- Low Speed Supply Air Flow Ratio
    0.66,                    !- Medium Speed Supply Air Flow Ratio
    ,                        !- Outdoor Air Schedule Name
    None,                    !- Baseboard Heating Type
    ,                        !- Baseboard Heating Availability Schedule Name
    autosize;                !- Baseboard Heating Capacity {W}


!-   ===========  ALL OBJECTS IN CLASS: HVACTEMPLATE:PLANT:CHILLEDWATERLOOP ===========

HVACTemplate:Plant:ChilledWaterLoop,
    CHW Plant Template,      !- Name
    ,                        !- Pump Schedule Name
    Intermittent,            !- Pump Control Type
    Default,                 !- Chiller Plant Operation Scheme Type
    ,                        !- Chiller Plant Equipment Operation Schemes Name
    ,                        !- Chilled Water Setpoint Schedule Name
    7.22,                    !- Chilled Water Design Setpoint {C}
    ConstantPrimaryVariableSecondary,  !- Chilled Water Pump Configuration
    179352,                  !- Primary Chilled Water Pump Rated Head {Pa}
    179352,                  !- Secondary Chilled Water Pump Rated Head {Pa}
    Default,                 !- Condenser Plant Operation Scheme Type
    ,                        !- Condenser Equipment Operation Schemes Name
    ,                        !- Condenser Water Temperature Control Type
    ,                        !- Condenser Water Setpoint Schedule Name
    29.4,                    !- Condenser Water Design Setpoint {C}
    179352,                  !- Condenser Water Pump Rated Head {Pa}
    None,                    !- Chilled Water Setpoint Reset Type
    12.2,                    !- Chilled Water Setpoint at Outdoor Dry-Bulb Low {C}
    15.6,                    !- Chilled Water Reset Outdoor Dry-Bulb Low {C}
    6.7,                     !- Chilled Water Setpoint at Outdoor Dry-Bulb High {C}
    26.7,                    !- Chilled Water Reset Outdoor Dry-Bulb High {C}
    PumpPerChiller,          !- Chilled Water Primary Pump Type
    FiveHeaderedPumps,       !- Chilled Water Secondary Pump Type
    SinglePump,              !- Condenser Water Pump Type
    Yes,                     !- Chilled Water Supply Side Bypass Pipe
    Yes,                     !- Chilled Water Demand Side Bypass Pipe
    Yes,                     !- Condenser Water Supply Side Bypass Pipe
    Yes,                     !- Condenser Water Demand Side Bypass Pipe
    Water,                   !- Fluid Type
    6.67,                    !- Loop Design Delta Temperature {deltaC}
    ,                        !- Minimum Outdoor Dry Bulb Temperature {C}
    SequentialLoad,          !- Chilled Water Load Distribution Scheme
    SequentialLoad;          !- Condenser Water Load Distribution Scheme


!-   ===========  ALL OBJECTS IN CLASS: HVACTEMPLATE:PLANT:CHILLER ===========

HVACTemplate:Plant:Chiller,
    Chiller,                 !- Name
    ElectricCentrifugalChiller,  !- Chiller Type
    autosize,                !- Capacity {W}
    6,                       !- Nominal COP {W/W}
    WaterCooled,             !- Condenser Type
    ,                        !- Priority
    1,                       !- Sizing Factor
    ,                        !- Minimum Part Load Ratio
    1,                       !- Maximum Part Load Ratio
    1,                       !- Optimum Part Load Ratio
    0.25,                    !- Minimum Unloading Ratio
    5;                       !- Leaving Chilled Water Lower Temperature Limit {C}

HVACTemplate:Plant:Chiller,
    Chiller 2,               !- Name
    ElectricCentrifugalChiller,  !- Chiller Type
    autosize,                !- Capacity {W}
    6,                       !- Nominal COP {W/W}
    WaterCooled,             !- Condenser Type
    ,                        !- Priority
    1,                       !- Sizing Factor
    ,                        !- Minimum Part Load Ratio
    1,                       !- Maximum Part Load Ratio
    1,                       !- Optimum Part Load Ratio
    0.25,                    !- Minimum Unloading Ratio
    5;                       !- Leaving Chilled Water Lower Temperature Limit {C}


!-   ===========  ALL OBJECTS IN CLASS: HVACTEMPLATE:PLANT:TOWER ===========

HVACTemplate:Plant:Tower,
    Tower,                   !- Name
    TwoSpeed,                !- Tower Type
    autosize,                !- High Speed Nominal Capacity {W}
    autosize,                !- High Speed Fan Power {W}
    autosize,                !- Low Speed Nominal Capacity {W}
    autosize,                !- Low Speed Fan Power {W}
    autosize,                !- Free Convection Capacity {W}
    ,                        !- Priority
    1;                       !- Sizing Factor

